# Diagnostics disabled for shared-library mode (timestep may change at runtime)
 &DIAGNOSTICS_LIST
 &
 &DIAG_STATIS_PARMS
 &
