# KPP vertical mixing parameters
 &KPP_PARM01
 &
