# Package configuration for coupled library mode.
# EXF is disabled: surface forcing comes from the host (Julia).
# KPP is enabled for vertical mixing.
 &PACKAGES
 useGMRedi      = .FALSE.,
 useKPP         = .TRUE.,
 useDiagnostics = .TRUE.,
 &
